Info: SIMULATION PARAMETERS:
Info: TIMESTEP               2
Info: NUMBER OF STEPS        0
Info: STEPS PER CYCLE        10
Info: PERIODIC CELL BASIS 1  108 0 0
Info: PERIODIC CELL BASIS 2  0 157.7 0
Info: PERIODIC CELL BASIS 3  0 0 140.5
Info: PERIODIC CELL CENTER   30.16 23.82 41.28
Info: WRAPPING ALL CLUSTERS AROUND PERIODIC BOUNDARIES ON OUTPUT.
Info: FIRST LDB TIMESTEP     50
Info: LAST LDB TIMESTEP     -1
Info: HOM BACKGROUND SCALING 1
Info: PME BACKGROUND SCALING 1
Info: MIN ATOMS PER PATCH    40
Info: INITIAL TEMPERATURE    310
Info: CENTER OF MASS MOVING INITIALLY? NO
Info: DIELECTRIC             1
Info: EXCLUDE                SCALED ONE-FOUR
Info: 1-4 ELECTROSTATICS SCALED BY 1
Info: MODIFIED 1-4 VDW PARAMETERS WILL BE USED
Info: DCD FILENAME           mod_puf_flexcible.dcd
Info: DCD FREQUENCY          250
Info: DCD FIRST STEP         250
Info: DCD FILE WILL CONTAIN UNIT CELL DATA
Info: XST FILENAME           mod_puf_flexcible.xst
Info: XST FREQUENCY          250
Info: NO VELOCITY DCD OUTPUT
Info: NO FORCE DCD OUTPUT
Info: OUTPUT FILENAME        mod_puf_flexcible
Info: BINARY OUTPUT FILES WILL BE USED
Info: RESTART FILENAME       mod_puf_flexcible.restart
Info: RESTART FREQUENCY      500
Info: BINARY RESTART FILES WILL BE USED
Info: SWITCHING ACTIVE
Info: SWITCHING ON           10
Info: SWITCHING OFF          12
Info: PAIRLIST DISTANCE      14
Info: PAIRLIST SHRINK RATE   0.01
Info: PAIRLIST GROW RATE     0.01
Info: PAIRLIST TRIGGER       0.3
Info: PAIRLISTS PER CYCLE    2
Info: PAIRLISTS ENABLED
Info: MARGIN                 0.495
Info: HYDROGEN GROUP CUTOFF  2.5
Info: PATCH DIMENSION        16.995
Info: ENERGY OUTPUT STEPS    100
Info: CROSSTERM ENERGY INCLUDED IN DIHEDRAL
Info: TIMING OUTPUT STEPS    1000
Info: PRESSURE OUTPUT STEPS  100
Info: TCL GLOBAL FORCES ACTIVE
Info: TCL GLOBAL FORCES SCRIPT   rot-b.tcl
Info: LANGEVIN DYNAMICS ACTIVE
Info: LANGEVIN TEMPERATURE   310
Info: LANGEVIN USING BBK INTEGRATOR
Info: LANGEVIN DAMPING COEFFICIENT IS 1 INVERSE PS
Info: LANGEVIN DYNAMICS NOT APPLIED TO HYDROGENS
Info: LANGEVIN PISTON PRESSURE CONTROL ACTIVE
Info:        TARGET PRESSURE IS 1.01325 BAR
Info:     OSCILLATION PERIOD IS 100 FS
Info:             DECAY TIME IS 50 FS
Info:     PISTON TEMPERATURE IS 310 K
Info:       PRESSURE CONTROL IS GROUP-BASED
Info:    INITIAL STRAIN RATE IS 0 0 0
Info:       CELL FLUCTUATION IS ISOTROPIC
Info: PARTICLE MESH EWALD (PME) ACTIVE
Info: PME TOLERANCE               1e-06
Info: PME EWALD COEFFICIENT       0.257952
Info: PME INTERPOLATION ORDER     4
Info: PME GRID DIMENSIONS         108 160 144
Info: PME MAXIMUM GRID SPACING    1
Info: FULL ELECTROSTATIC EVALUATION FREQUENCY      2
Info: USING VERLET I (r-RESPA) MTS SCHEME.
Info: C1 SPLITTING OF LONG RANGE ELECTROSTATICS
Info: PLACING ATOMS IN PATCHES BY HYDROGEN GROUPS
Info: RIGID BONDS TO HYDROGEN : ALL
Info:         ERROR TOLERANCE : 1e-08
Info:          MAX ITERATIONS : 100
Info: RIGID WATER USING SETTLE ALGORITHM
Info: RANDOM NUMBER SEED     1442425896
Info: USE HYDROGEN BONDS?    NO
Info: COORDINATE PDB         ./mod_start_wb.pdb
Info: STRUCTURE FILE         ./mod_start_wb.psf
Info: PARAMETER file: CHARMM format!
Info: PARAMETERS             ./par_all27_prot_lipid.inp
Info: USING ARITHMETIC MEAN TO COMBINE L-J SIGMA PARAMETERS
Info: SUMMARY OF PARAMETERS:
Info: 180 BONDS
Info: 447 ANGLES
Info: 566 DIHEDRAL
Info: 46 IMPROPER
Info: 6 CROSSTERM
Info: 119 VDW
Info: 0 VDW_PAIRS
Info: 0 NBTHOLE_PAIRS
Info: STRUCTURE SUMMARY:
Info: 230188 ATOMS
Info: 157548 BONDS
Info: 94516 ANGLES
Info: 31822 DIHEDRALS
Info: 2164 IMPROPERS
Info: 737 CROSSTERMS
Info: 0 EXCLUSIONS
Info: 224249 RIGID BONDS
Info: 466315 DEGREES OF FREEDOM
Info: 78698 HYDROGEN GROUPS
Info: 4 ATOMS IN LARGEST HYDROGEN GROUP
Info: 78698 MIGRATION GROUPS
Info: 4 ATOMS IN LARGEST MIGRATION GROUP
Info: TOTAL MASS = 1.39532e+06 amu
Info: TOTAL CHARGE = 8.00001 e
Info: MASS DENSITY = 0.968284 g/cm^3
Info: ATOM DENSITY = 0.0961946 atoms/A^3
Info: ADDED 283400 IMPLICIT EXCLUSIONS
Info: NONBONDED TABLE R-SQUARED SPACING: 0.0625
Info: NONBONDED TABLE SIZE: 769 POINTS
Info: REMOVING COM VELOCITY -0.0171237 -0.0155747 -0.00410176
TCL: WARNING: no target atoms have been detected
TCL: WARNING: no target atoms have been detected
TCL: Linear acceleration applied: (0 0 10) Ang*ps^-2
TCL: Angular acceleration applied: (0 0 0) Rad*ps^-2
TCL: Linear acceleration applied: (0 0 -10) Ang*ps^-2
TCL: Angular acceleration applied: (0 0 0) Rad*ps^-2
TCL: Minimizing for 100 steps
ETITLE: TS BOND ANGLE DIHED IMPRP ELECT VDW BOUNDARY MISC KINETIC TOTAL TEMP POTENTIAL TOTAL3 TEMPAVG PRESSURE GPRESSURE VOLUME PRESSAVG GPRESSAVG
ENERGY: 0 86.9122 4158.9149 1884.6287 74.4605 -748354.9977 150757271.0336 0.0000 0.0000 0.0000 150015120.9522 0.0000 150015120.9522 150015120.9522 0.0000 17525882.3688 19509483.7892 2392939.8000 17525882.3688 19509483.7892
ENERGY: 20 1382.7276 3403.4743 1981.0690 145.5853 -767910.2810 65614.3467 0.0000 0.0000 0.0000 -695383.0780 0.0000 -695383.0780 -695383.0780 0.0000 17613.8801 -723.9963 2392939.8000 17613.8801 -723.9963
ENERGY: 40 1929.3406 2657.4037 2019.5949 161.9698 -794675.2980 55747.0182 0.0000 0.0000 0.0000 -732159.9707 0.0000 -732159.9707 -732159.9707 0.0000 16013.0006 -3044.3788 2392939.8000 16013.0006 -3044.3788
ENERGY: 60 622.5818 2559.3006 2067.6207 175.6295 -820265.6956 50673.3738 0.0000 0.0000 0.0000 -764167.1893 0.0000 -764167.1893 -764167.1893 0.0000 14834.0159 -4907.7300 2392939.8000 14834.0159 -4907.7300
ENERGY: 80 612.5327 2720.6290 2169.1852 171.9948 -840529.8406 49083.7248 0.0000 0.0000 0.0000 -785771.7740 0.0000 -785771.7740 -785771.7740 0.0000 14293.8507 -6035.1841 2392939.8000 14293.8507 -6035.1841
ENERGY: 100 1334.9429 2824.9848 2247.4182 170.3007 -853280.4790 49688.4586 0.0000 0.0000 0.0000 -797014.3738 0.0000 -797014.3738 -797014.3738 0.0000 14104.3980 -6592.7727 2392939.8000 14104.3980 -6592.7727
TCL: Running for 50000000 steps
ETITLE: TS BOND ANGLE DIHED IMPRP ELECT VDW BOUNDARY MISC KINETIC TOTAL TEMP POTENTIAL TOTAL3 TEMPAVG PRESSURE GPRESSURE VOLUME PRESSAVG GPRESSAVG
ENERGY: 100 1334.9429 2824.9848 2247.4182 170.3007 -853280.4790 49688.4586 0.0000 0.0000 143883.5570 -653130.8168 310.5433 -797014.3738 -653368.2663 310.5433 -5201.5890 -5164.9084 2392939.8000 -5201.5890 -5164.9084
ENERGY: 2400 2346.9440 6890.0499 3017.2376 435.7271 -824680.5463 73906.7301 0.0000 0.0000 135969.1790 -602114.6787 293.4617 -738083.8576 -601744.3077 293.0981 -25.5509 9.1213 2257607.8615 1.6878 1.6090
ENERGY: 4700 2471.5824 7110.6043 2943.7290 425.7537 -810258.1381 70526.9642 0.0000 0.0000 141189.2924 -585590.2120 304.7283 -726779.5044 -585218.3355 304.8992 -84.2148 -52.8732 2278308.6193 10.1173 10.1746
ENERGY: 6900 2445.2600 7148.2303 2977.5115 432.7912 -808039.3835 70157.7671 0.0000 0.0000 142477.6185 -582400.2049 307.5089 -724877.8234 -582023.5400 307.7577 -22.2077 8.7910 2279429.4285 4.4982 4.4536
ENERGY: 9200 2490.7710 7102.1413 3013.2482 433.0375 -806573.9644 70554.8145 0.0000 0.0000 143265.3045 -579714.6473 309.2089 -722979.9518 -579335.4334 308.8923 34.2706 67.2740 2284451.3927 -0.3759 -0.4032
ENERGY: 11500 2397.1210 6978.1099 3045.1010 430.6632 -805829.1693 70078.6323 0.0000 0.0000 143133.8905 -579765.6515 308.9253 -722899.5420 -579401.3190 309.1666 -58.5028 -25.6728 2288627.0896 -3.3974 -3.4356
